D0U4BB
 Wcorina  10100417203D 1   1.00000     0.00000 
CORINA evaluation license 3.40 0067  02.08.2006
 21 22  0     0  0  0  0  0  0999 V2000
   -0.0162    1.3460    0.0094 O   0  0  0  0  0  0  0  0  0  0  0  0
   -2.2965   -2.8218    0.0074 O   0  0  0  0  0  0  0  0  0  0  0  0
    1.0535    3.2783    0.0096 O   0  0  0  0  0  0  0  0  0  0  0  0
    1.2319   -0.6879   -0.0133 C   0  0  0  0  0  0  0  0  0  0  0  0
    0.0021   -0.0041    0.0020 C   0  0  0  0  0  0  0  0  0  0  0  0
   -1.1802   -0.7289    0.0089 C   0  0  0  0  0  0  0  0  0  0  0  0
    1.2552   -2.0874   -0.0215 C   0  0  0  0  0  0  0  0  0  0  0  0
   -1.1385   -2.1134    0.0007 C   0  0  0  0  0  0  0  0  0  0  0  0
    0.0825   -2.7852   -0.0141 C   0  0  0  0  0  0  0  0  0  0  0  0
    2.4744    0.0870   -0.0206 C   0  0  0  0  0  0  0  0  0  0  0  0
    2.3855    1.4425   -0.0125 C   0  0  0  0  0  0  0  0  0  0  0  0
    1.1190    2.0622    0.0024 C   0  0  0  0  0  0  0  0  0  0  0  0
   -2.1855   -4.2465   -0.0017 C   0  0  0  0  0  0  0  0  0  0  0  0
   -2.1303   -0.2156    0.0210 H   0  0  0  0  0  0  0  0  0  0  0  0
    2.1985   -2.6134   -0.0332 H   0  0  0  0  0  0  0  0  0  0  0  0
    0.1007   -3.8650   -0.0203 H   0  0  0  0  0  0  0  0  0  0  0  0
    3.4354   -0.4058   -0.0321 H   0  0  0  0  0  0  0  0  0  0  0  0
    3.2825    2.0440   -0.0178 H   0  0  0  0  0  0  0  0  0  0  0  0
   -1.6368   -4.5738    0.8814 H   0  0  0  0  0  0  0  0  0  0  0  0
   -3.1818   -4.6885    0.0050 H   0  0  0  0  0  0  0  0  0  0  0  0
   -1.6533   -4.5637   -0.8985 H   0  0  0  0  0  0  0  0  0  0  0  0
  1  5  1  0  0  0  0
  1 12  1  0  0  0  0
  2  8  1  0  0  0  0
  2 13  1  0  0  0  0
  3 12  2  0  0  0  0
  4  5  2  0  0  0  0
  4  7  1  0  0  0  0
  4 10  1  0  0  0  0
  5  6  1  0  0  0  0
  6  8  2  0  0  0  0
  6 14  1  0  0  0  0
  7  9  2  0  0  0  0
  7 15  1  0  0  0  0
  8  9  1  0  0  0  0
  9 16  1  0  0  0  0
 10 11  2  0  0  0  0
 10 17  1  0  0  0  0
 11 12  1  0  0  0  0
 11 18  1  0  0  0  0
 13 19  1  0  0  0  0
 13 20  1  0  0  0  0
 13 21  1  0  0  0  0
M  END

$$$$
